lig_215
     RDKit          3D

 27 28  0  0  1  0  0  0  0  0999 V2000
    1.1367    2.6738    0.6426 C   0  0  0  0  0  0  0  0  0  0  0  0
    0.4263    2.2363    1.7715 C   0  0  0  0  0  0  0  0  0  0  0  0
    0.4060    0.7432   -0.5605 C   0  0  0  0  0  0  0  0  0  0  0  0
   -0.3020    0.3062    0.5664 C   0  0  0  0  0  0  0  0  0  0  0  0
    1.1250    1.9268   -0.5376 C   0  0  0  0  0  0  0  0  0  0  0  0
   -0.3059    1.0479    1.7363 C   0  0  0  0  0  0  0  0  0  0  0  0
    0.2290   -0.1978   -1.7119 C   0  0  0  0  0  0  0  0  0  0  0  0
   -1.0381   -0.9663    0.2693 C   0  0  1  0  0  0  0  0  0  0  0  0
   -0.3086   -1.4375   -0.9941 C   0  0  0  0  0  0  0  0  0  0  0  0
   -0.0756   -0.4136    4.0865 C   0  0  0  0  0  0  0  0  0  0  0  0
   -1.5308    1.7721    3.9021 O   0  0  0  0  0  0  0  0  0  0  0  0
   -2.3035   -0.3133    2.7129 O   0  0  0  0  0  0  0  0  0  0  0  0
    1.8039    2.3607   -1.6305 O   0  0  0  0  0  0  0  0  0  0  0  0
   -0.9492   -1.9424    1.2900 O   0  0  0  0  0  0  0  0  0  0  0  0
    0.7227   -2.2578   -0.6738 F   0  0  0  0  0  0  0  0  0  0  0  0
   -1.1416   -2.1328   -1.7979 F   0  0  0  0  0  0  0  0  0  0  0  0
   -1.2232    0.5676    3.1408 S   0  0  0  0  0  0  0  0  0  0  0  0
   -0.9063   -0.9876    5.5354 Cl  0  0  0  0  0  0  0  0  0  0  0  0
    1.6934    3.6063    0.6927 H   0  0  0  0  0  0  0  0  0  0  0  0
    0.4456    2.8443    2.6727 H   0  0  0  0  0  0  0  0  0  0  0  0
   -0.4989    0.2024   -2.4243 H   0  0  0  0  0  0  0  0  0  0  0  0
    1.1779   -0.4094   -2.2128 H   0  0  0  0  0  0  0  0  0  0  0  0
   -2.0975   -0.7461    0.0595 H   0  0  0  0  0  0  0  0  0  0  0  0
    0.2415   -1.2679    3.4852 H   0  0  0  0  0  0  0  0  0  0  0  0
    0.7739    0.2064    4.3788 H   0  0  0  0  0  0  0  0  0  0  0  0
    2.2416    3.2063   -1.4178 H   0  0  0  0  0  0  0  0  0  0  0  0
   -1.4581   -2.7163    0.9924 H   0  0  0  0  0  0  0  0  0  0  0  0
  1  2  2  0
  1  5  1  0
  2  6  1  0
  3  4  1  0
  3  5  2  0
  3  7  1  0
  4  6  2  0
  4  8  1  0
  5 13  1  0
  6 17  1  0
  7  9  1  0
  8  9  1  0
  8 14  1  0
  9 15  1  0
  9 16  1  0
 10 17  1  0
 10 18  1  0
 11 17  2  0
 12 17  2  0
  1 19  1  0
  2 20  1  0
  7 21  1  0
  7 22  1  0
  8 23  1  6
 10 24  1  0
 10 25  1  0
 13 26  1  0
 14 27  1  0
M  END
$$$$
lig_25
     RDKit          3D

 27 28  0  0  1  0  0  0  0  0999 V2000
    1.1367    2.6738    0.6426 C   0  0  0  0  0  0  0  0  0  0  0  0
    0.4263    2.2363    1.7715 C   0  0  0  0  0  0  0  0  0  0  0  0
    0.4060    0.7432   -0.5605 C   0  0  0  0  0  0  0  0  0  0  0  0
   -0.3020    0.3062    0.5664 C   0  0  0  0  0  0  0  0  0  0  0  0
    1.1250    1.9268   -0.5376 C   0  0  0  0  0  0  0  0  0  0  0  0
   -0.3059    1.0479    1.7363 C   0  0  0  0  0  0  0  0  0  0  0  0
    0.2290   -0.1978   -1.7119 C   0  0  0  0  0  0  0  0  0  0  0  0
   -1.0381   -0.9663    0.2693 C   0  0  1  0  0  0  0  0  0  0  0  0
   -0.3086   -1.4375   -0.9941 C   0  0  0  0  0  0  0  0  0  0  0  0
   -0.0949   -0.4125    4.0969 C   0  0  0  0  0  0  0  0  0  0  0  0
   -2.2992   -0.3200    2.7221 O   0  0  0  0  0  0  0  0  0  0  0  0
   -1.5286    1.7690    3.9038 O   0  0  0  0  0  0  0  0  0  0  0  0
    1.8039    2.3607   -1.6305 O   0  0  0  0  0  0  0  0  0  0  0  0
   -0.9492   -1.9424    1.2900 O   0  0  0  0  0  0  0  0  0  0  0  0
    0.7227   -2.2578   -0.6738 F   0  0  0  0  0  0  0  0  0  0  0  0
   -1.1416   -2.1328   -1.7979 F   0  0  0  0  0  0  0  0  0  0  0  0
    0.9963    0.3089    4.4601 F   0  0  0  0  0  0  0  0  0  0  0  0
   -0.6798   -0.8404    5.2430 F   0  0  0  0  0  0  0  0  0  0  0  0
   -1.2232    0.5676    3.1408 S   0  0  0  0  0  0  0  0  0  0  0  0
    1.6934    3.6063    0.6927 H   0  0  0  0  0  0  0  0  0  0  0  0
    0.4456    2.8443    2.6727 H   0  0  0  0  0  0  0  0  0  0  0  0
   -0.4989    0.2024   -2.4243 H   0  0  0  0  0  0  0  0  0  0  0  0
    1.1779   -0.4094   -2.2128 H   0  0  0  0  0  0  0  0  0  0  0  0
   -2.0975   -0.7461    0.0595 H   0  0  0  0  0  0  0  0  0  0  0  0
    0.2310   -1.2755    3.5112 H   0  0  0  0  0  0  0  0  0  0  0  0
    2.2416    3.2063   -1.4178 H   0  0  0  0  0  0  0  0  0  0  0  0
   -1.4581   -2.7163    0.9924 H   0  0  0  0  0  0  0  0  0  0  0  0
  1  2  2  0
  1  5  1  0
  2  6  1  0
  3  4  1  0
  3  5  2  0
  3  7  1  0
  4  6  2  0
  4  8  1  0
  5 13  1  0
  6 19  1  0
  7  9  1  0
  8  9  1  0
  8 14  1  0
  9 15  1  0
  9 16  1  0
 10 17  1  0
 10 18  1  0
 10 19  1  0
 11 19  2  0
 12 19  2  0
  1 20  1  0
  2 21  1  0
  7 22  1  0
  7 23  1  0
  8 24  1  6
 10 25  1  0
 13 26  1  0
 14 27  1  0
M  END
$$$$
lig_E27
     RDKit          3D

 43 45  0  0  1  0  0  0  0  0999 V2000
   22.2407   42.9507    2.6451 H   0  0  0  0  0  0  0  0  0  0  0  0
   22.2406   42.1437    3.3632 C   0  0  0  0  0  0  0  0  0  0  0  0
   21.0769   41.9053    4.0125 N   0  0  0  0  0  0  0  0  0  0  0  0
   21.0639   40.8817    4.8947 C   0  0  0  0  0  0  0  0  0  0  0  0
   19.7547   40.6164    5.5194 C   0  0  0  0  0  0  0  0  0  0  0  0
   18.6976   40.1358    4.7122 C   0  0  0  0  0  0  0  0  0  0  0  0
   18.8618   39.9634    3.6574 H   0  0  0  0  0  0  0  0  0  0  0  0
   17.4341   39.8562    5.2618 C   0  0  0  0  0  0  0  0  0  0  0  0
   16.6456   39.4760    4.6284 H   0  0  0  0  0  0  0  0  0  0  0  0
   17.2114   40.0473    6.6361 C   0  0  0  0  0  0  0  0  0  0  0  0
   16.2475   39.8190    7.0675 H   0  0  0  0  0  0  0  0  0  0  0  0
   18.2457   40.5401    7.4506 C   0  0  0  0  0  0  0  0  0  0  0  0
   17.9445   40.8121    9.1255 Cl  0  0  0  0  0  0  0  0  0  0  0  0
   19.5103   40.8342    6.8982 C   0  0  0  0  0  0  0  0  0  0  0  0
   20.7232   41.5220    7.9201 Cl  0  0  0  0  0  0  0  0  0  0  0  0
   22.2308   40.1056    5.1248 C   0  0  0  0  0  0  0  0  0  0  0  0
   22.2423   39.0543    6.0343 N   0  0  0  0  0  0  0  0  0  0  0  0
   21.4287   38.8119    6.5790 H   0  0  0  0  0  0  0  0  0  0  0  0
   23.0903   38.5328    6.2330 H   0  0  0  0  0  0  0  0  0  0  0  0
   23.3814   40.3218    4.4468 N   0  0  0  0  0  0  0  0  0  0  0  0
   23.3820   41.3273    3.5437 C   0  0  0  0  0  0  0  0  0  0  0  0
   24.5290   41.5130    2.7584 N   0  0  0  0  0  0  0  0  0  0  0  0
   25.4551   42.5879    3.1112 C   0  0  0  0  0  0  0  0  0  0  0  0
   25.6608   43.1733    2.2140 H   0  0  0  0  0  0  0  0  0  0  0  0
   24.9961   43.2720    3.8257 H   0  0  0  0  0  0  0  0  0  0  0  0
   26.7729   42.0221    3.6927 C   0  0  2  0  0  0  0  0  0  0  0  0
   26.5521   41.5501    4.6507 H   0  0  0  0  0  0  0  0  0  0  0  0
   27.8286   43.1046    3.9281 C   0  0  0  0  0  0  0  0  0  0  0  0
   27.4390   43.9207    4.5357 H   0  0  0  0  0  0  0  0  0  0  0  0
   28.7001   42.7035    4.4467 H   0  0  0  0  0  0  0  0  0  0  0  0
   28.1736   43.5221    2.9827 H   0  0  0  0  0  0  0  0  0  0  0  0
   27.3293   40.9868    2.7933 N   0  0  0  0  0  0  0  0  0  0  0  0
   28.1904   40.6307    3.1876 H   0  0  0  0  0  0  0  0  0  0  0  0
   26.3968   39.8681    2.5326 C   0  0  2  0  0  0  0  0  0  0  0  0
   26.2087   39.3750    3.4865 H   0  0  0  0  0  0  0  0  0  0  0  0
   27.0404   38.8525    1.5762 C   0  0  0  0  0  0  0  0  0  0  0  0
   26.3786   38.0025    1.4047 H   0  0  0  0  0  0  0  0  0  0  0  0
   27.9720   38.4595    1.9853 H   0  0  0  0  0  0  0  0  0  0  0  0
   27.2639   39.2992    0.6072 H   0  0  0  0  0  0  0  0  0  0  0  0
   25.0531   40.3909    1.9821 C   0  0  0  0  0  0  0  0  0  0  0  0
   25.1758   40.7292    0.9532 H   0  0  0  0  0  0  0  0  0  0  0  0
   24.3341   39.5734    1.9542 H   0  0  0  0  0  0  0  0  0  0  0  0
   27.5508   41.4271    1.9127 H   0  0  0  0  0  0  0  0  0  0  0  0
  1  2  1  0
  2 21  2  0
  2  3  1  0
  3  4  2  0
  4  5  1  0
  4 16  1  0
  5 14  1  0
  5  6  2  0
  6  7  1  0
  6  8  1  0
  8  9  1  0
  8 10  2  0
 10 11  1  0
 10 12  1  0
 12 13  1  0
 12 14  2  0
 14 15  1  0
 16 17  1  0
 16 20  2  0
 17 18  1  0
 17 19  1  0
 20 21  1  0
 21 22  1  0
 22 40  1  0
 22 23  1  0
 23 24  1  0
 23 25  1  0
 23 26  1  0
 26 27  1  1
 26 28  1  0
 26 32  1  0
 28 29  1  0
 28 30  1  0
 28 31  1  0
 32 33  1  0
 32 34  1  0
 32 43  1  0
 34 35  1  1
 34 36  1  0
 34 40  1  0
 36 37  1  0
 36 38  1  0
 36 39  1  0
 40 41  1  0
 40 42  1  0
M  CHG  1  32   1
M  END
>  <s_m_source_file>  (3) 
ligprep_shp2.smi

>  <i_m_source_file_index>  (3) 
15

>  <i_lp_mmshare_version>  (3) 
53161

>  <i_f3d_flags>  (3) 
0

>  <s_epik_input>  (3) 
W0NIM11bQ0BIXShbQ0gyXTEpW05IXVtDQEBIXShbQ0gzXSlbQ0gyXU4xYyhuYzJbTkgyXSlbY0hdbmMyLWMzW2NIXVtjSF1bY0hdYyhDbCljM0Ns

>  <s_epik_cmdline>  (3) 
J2VwaWtfcHl0aG9uJywgJy1waHQnLCAnMC4wJywgJy1waCcsICc3LjQnLCAnLXRuJywgJzgnLCAnLW1hJywgJzUwMCcsICctaW1hZScsICc8aW5maWxlLm1hZT4nLCAnLW9tYWUnLCAnPG91dGZpbGUubWFlPic=

>  <r_lp_tautomer_probability>  (3) 
1

>  <r_epik_Ionization_Penalty>  (3) 
  0.0273

>  <r_epik_Ionization_Penalty_Charging>  (3) 
  0.0273

>  <r_epik_Ionization_Penalty_Neutral>  (3) 
  0.0000

>  <r_epik_State_Penalty>  (3) 
 -0.0000

>  <r_epik_Charging_Adjusted_Penalty>  (3) 
0.0273001

>  <i_epik_Tot_Q>  (3) 
1

>  <i_epik_Tot_abs_Q>  (3) 
1

>  <s_lp_Force_Field>  (3) 
S-OPLS

>  <r_lp_Energy>  (3) 
44.5251

>  <b_lp_Chiralities_Consistent>  (3) 
1

>  <s_lp_Variant>  (3) 
lig_E27-1

>  <s_i_glide_gridfile>  (3) 
glide-grid_SHP2-5EHR

>  <i_i_glide_lignum>  (3) 
15

>  <i_i_glide_rotatable_bonds>  (3) 
2

>  <r_i_docking_score>  (3) 
-7.74516510855307

>  <r_i_glide_ligand_efficiency>  (3) 
-0.336746309067525

>  <r_i_glide_ligand_efficiency_sa>  (3) 
-0.95766170794311

>  <r_i_glide_ligand_efficiency_ln>  (3) 
-1.87285115252251

>  <r_i_glide_gscore>  (3) 
-7.74516510855307

>  <r_i_glide_lipo>  (3) 
-2.55068194927011

>  <r_i_glide_hbond>  (3) 
-0.410864204135457

>  <r_i_glide_metal>  (3) 
-0

>  <r_i_glide_rewards>  (3) 
-1.28587989397779

>  <r_i_glide_evdw>  (3) 
-49.332389831543

>  <r_i_glide_ecoul>  (3) 
-8.84439659118652

>  <r_i_glide_erotb>  (3) 
0.306009389202365

>  <r_i_glide_esite>  (3) 
-0.0104694701169546

>  <r_i_glide_emodel>  (3) 
-85.3305641260609

>  <r_i_glide_energy>  (3) 
-58.1767864227295

>  <r_i_glide_einternal>  (3) 
5.45631122589111

>  <i_i_glide_confnum>  (3) 
2

>  <i_i_glide_posenum>  (3) 
2

>  <r_i_glide_eff_state_penalty>  (3) 
-0

>  <r_i_glide_rmsd>  (3) 
0.104350638480579

>  <s_glide_core_constrain_type>  (3) 
snapped_core_restrain

$$$$
lig_7
     RDKit          3D

 46 48  0  0  1  0  0  0  0  0999 V2000
   22.1281   39.0862    5.9252 H   0  0  0  0  0  0  0  0  0  0  0  0
   22.2068   39.9067    5.2268 C   0  0  0  0  0  0  0  0  0  0  0  0
   23.3928   40.0595    4.6030 N   0  0  0  0  0  0  0  0  0  0  0  0
   23.4969   41.0289    3.6900 C   0  0  0  0  0  0  0  0  0  0  0  0
   24.6520   41.0776    2.9059 N   0  0  0  0  0  0  0  0  0  0  0  0
   25.7474   40.1178    3.0307 C   0  0  0  0  0  0  0  0  0  0  0  0
   26.0125   39.7909    2.0242 H   0  0  0  0  0  0  0  0  0  0  0  0
   25.4539   39.2047    3.5355 H   0  0  0  0  0  0  0  0  0  0  0  0
   26.9634   40.7927    3.6857 C   0  0  0  0  0  0  0  0  0  0  0  0
   27.7650   40.0573    3.7461 H   0  0  0  0  0  0  0  0  0  0  0  0
   26.7311   41.0858    4.7244 H   0  0  0  0  0  0  0  0  0  0  0  0
   27.4005   41.9930    2.8080 C   0  0  0  0  0  0  0  0  0  0  0  0
   27.6712   41.5699    1.8402 H   0  0  0  0  0  0  0  0  0  0  0  0
   28.6237   42.6540    3.3435 N   0  0  0  0  0  0  0  0  0  0  0  0
   29.5783   43.1218    2.3058 C   0  0  0  0  0  0  0  0  0  0  0  0
   29.2052   43.9269    1.6944 H   0  0  0  0  0  0  0  0  0  0  0  0
   29.8320   42.3221    1.6147 H   0  0  0  0  0  0  0  0  0  0  0  0
   30.5077   43.4567    2.7654 H   0  0  0  0  0  0  0  0  0  0  0  0
   28.3840   43.6240    4.4356 C   0  0  0  0  0  0  0  0  0  0  0  0
   27.6543   44.3937    4.1876 H   0  0  0  0  0  0  0  0  0  0  0  0
   28.0072   43.1015    5.3134 H   0  0  0  0  0  0  0  0  0  0  0  0
   29.3076   44.1298    4.7142 H   0  0  0  0  0  0  0  0  0  0  0  0
   26.2046   42.9541    2.5675 C   0  0  0  0  0  0  0  0  0  0  0  0
   25.8819   43.4221    3.4978 H   0  0  0  0  0  0  0  0  0  0  0  0
   26.4846   43.7586    1.8870 H   0  0  0  0  0  0  0  0  0  0  0  0
   24.9858   42.1977    2.0193 C   0  0  0  0  0  0  0  0  0  0  0  0
   25.2119   41.8006    1.0259 H   0  0  0  0  0  0  0  0  0  0  0  0
   24.1574   42.8954    1.8805 H   0  0  0  0  0  0  0  0  0  0  0  0
   22.5480   41.9224    3.4177 N   0  0  0  0  0  0  0  0  0  0  0  0
   21.3756   41.7782    4.0447 C   0  0  0  0  0  0  0  0  0  0  0  0
   20.4232   42.7221    3.7095 N   0  0  0  0  0  0  0  0  0  0  0  0
   19.5113   42.7178    4.1408 H   0  0  0  0  0  0  0  0  0  0  0  0
   20.6679   43.5107    3.1276 H   0  0  0  0  0  0  0  0  0  0  0  0
   21.1021   40.7398    4.9537 C   0  0  0  0  0  0  0  0  0  0  0  0
   19.7776   40.5001    5.5551 C   0  0  0  0  0  0  0  0  0  0  0  0
   18.7465   39.9543    4.7567 C   0  0  0  0  0  0  0  0  0  0  0  0
   18.9373   39.7141    3.7200 H   0  0  0  0  0  0  0  0  0  0  0  0
   17.4693   39.7075    5.2907 C   0  0  0  0  0  0  0  0  0  0  0  0
   16.6975   39.2785    4.6673 H   0  0  0  0  0  0  0  0  0  0  0  0
   17.2039   39.9992    6.6398 C   0  0  0  0  0  0  0  0  0  0  0  0
   16.2274   39.7943    7.0569 H   0  0  0  0  0  0  0  0  0  0  0  0
   18.2122   40.5537    7.4447 C   0  0  0  0  0  0  0  0  0  0  0  0
   17.8551   40.9676    9.0803 Cl  0  0  0  0  0  0  0  0  0  0  0  0
   19.4966   40.8002    6.9115 C   0  0  0  0  0  0  0  0  0  0  0  0
   20.6975   41.5219    7.9207 Cl  0  0  0  0  0  0  0  0  0  0  0  0
   29.1548   41.9025    3.7636 H   0  0  0  0  0  0  0  0  0  0  0  0
  1  2  1  0
  2 34  2  0
  2  3  1  0
  3  4  2  0
  4  5  1  0
  4 29  1  0
  5 26  1  0
  5  6  1  0
  6  7  1  0
  6  8  1  0
  6  9  1  0
  9 10  1  0
  9 11  1  0
  9 12  1  0
 12 13  1  0
 12 14  1  0
 12 23  1  0
 14 15  1  0
 14 19  1  0
 14 46  1  0
 15 16  1  0
 15 17  1  0
 15 18  1  0
 19 20  1  0
 19 21  1  0
 19 22  1  0
 23 24  1  0
 23 25  1  0
 23 26  1  0
 26 27  1  0
 26 28  1  0
 29 30  2  0
 30 31  1  0
 30 34  1  0
 31 32  1  0
 31 33  1  0
 34 35  1  0
 35 44  1  0
 35 36  2  0
 36 37  1  0
 36 38  1  0
 38 39  1  0
 38 40  2  0
 40 41  1  0
 40 42  1  0
 42 43  1  0
 42 44  2  0
 44 45  1  0
M  CHG  1  14   1
M  END
>  <s_m_source_file>  (4) 
ligprep_shp2.smi

>  <i_m_source_file_index>  (4) 
6

>  <i_lp_mmshare_version>  (4) 
53161

>  <i_f3d_flags>  (4) 
0

>  <s_epik_input>  (4) 
Q2xjMWMoQ2wpW2NIXVtjSF1bY0hdYzEtYyhjKG4yKVtOSDJdKVtjSF1uYzJOM1tDSDJdW0NIMl1bQ0hdKE4oW0NIM10pW0NIM10pW0NIMl1bQ0gyXTM=

>  <s_epik_cmdline>  (4) 
J2VwaWtfcHl0aG9uJywgJy1waHQnLCAnMC4wJywgJy1waCcsICc3LjQnLCAnLXRuJywgJzgnLCAnLW1hJywgJzUwMCcsICctaW1hZScsICc8aW5maWxlLm1hZT4nLCAnLW9tYWUnLCAnPG91dGZpbGUubWFlPic=

>  <r_lp_tautomer_probability>  (4) 
1

>  <r_epik_Ionization_Penalty>  (4) 
  0.0857

>  <r_epik_Ionization_Penalty_Charging>  (4) 
  0.0046

>  <r_epik_Ionization_Penalty_Neutral>  (4) 
  0.0810

>  <r_epik_State_Penalty>  (4) 
  0.0528

>  <r_epik_Charging_Adjusted_Penalty>  (4) 
0.0574696

>  <i_epik_Tot_Q>  (4) 
1

>  <i_epik_Tot_abs_Q>  (4) 
1

>  <s_lp_Force_Field>  (4) 
S-OPLS

>  <r_lp_Energy>  (4) 
57.4342

>  <b_lp_Chiralities_Consistent>  (4) 
1

>  <s_lp_Variant>  (4) 
lig_7-1

>  <s_i_glide_gridfile>  (4) 
glide-grid_SHP2-5EHR

>  <i_i_glide_lignum>  (4) 
6

>  <i_i_glide_rotatable_bonds>  (4) 
3

>  <r_i_docking_score>  (4) 
-7.36473883125184

>  <r_i_glide_ligand_efficiency>  (4) 
-0.306864117968827

>  <r_i_glide_ligand_efficiency_sa>  (4) 
-0.88514928362892

>  <r_i_glide_ligand_efficiency_ln>  (4) 
-1.76271994816269

>  <r_i_glide_gscore>  (4) 
-7.41753883125184

>  <r_i_glide_lipo>  (4) 
-2.44270791851269

>  <r_i_glide_hbond>  (4) 
-0.04610207437005

>  <r_i_glide_metal>  (4) 
-0

>  <r_i_glide_rewards>  (4) 
-1.45148633473357

>  <r_i_glide_evdw>  (4) 
-42.1526336669922

>  <r_i_glide_ecoul>  (4) 
-11.7506875991821

>  <r_i_glide_erotb>  (4) 
0.428233042994739

>  <r_i_glide_esite>  (4) 
-0.0352407234033368

>  <r_i_glide_emodel>  (4) 
-79.6036107829273

>  <r_i_glide_energy>  (4) 
-53.9033212661743

>  <r_i_glide_einternal>  (4) 
5.27837944030762

>  <i_i_glide_confnum>  (4) 
34

>  <i_i_glide_posenum>  (4) 
27

>  <r_i_glide_eff_state_penalty>  (4) 
0.0528

>  <r_i_glide_rmsd>  (4) 
0.0878164179120537

>  <s_glide_core_constrain_type>  (4) 
snapped_core_restrain

$$$$
lig_ejm_31
     RDKit          3D

 32 33  0  0  1  0  0  0  0  0999 V2000
   -4.7643   -2.8400  -16.5091 H   0  0  0  0  0  0  0  0  0  0  0  0
   -5.3542   -3.7038  -16.2347 C   0  0  0  0  0  0  0  0  0  0  0  0
   -4.7674   -4.9795  -16.2123 C   0  0  0  0  0  0  0  0  0  0  0  0
   -5.5290   -6.1026  -15.8438 C   0  0  0  0  0  0  0  0  0  0  0  0
   -6.8923   -5.9587  -15.4780 C   0  0  0  0  0  0  0  0  0  0  0  0
   -7.4820   -4.6699  -15.5255 C   0  0  0  0  0  0  0  0  0  0  0  0
   -6.7115   -3.5548  -15.9030 C   0  0  0  0  0  0  0  0  0  0  0  0
   -7.1638   -2.5769  -15.9396 H   0  0  0  0  0  0  0  0  0  0  0  0
   -9.1561   -4.4143  -15.1653 Cl  0  0  0  0  0  0  0  0  0  0  0  0
   -7.7049   -7.1425  -15.0386 C   0  0  0  0  0  0  0  0  0  0  0  0
   -8.1157   -7.2179  -13.8805 O   0  0  0  0  0  0  0  0  0  0  0  0
   -7.9064   -8.0562  -16.0049 N   0  0  0  0  0  0  0  0  0  0  0  0
   -7.4327   -7.8743  -16.8760 H   0  0  0  0  0  0  0  0  0  0  0  0
   -8.7268   -9.2125  -16.0105 C   0  0  0  0  0  0  0  0  0  0  0  0
   -9.5827   -9.5982  -14.9587 C   0  0  0  0  0  0  0  0  0  0  0  0
  -10.3835  -10.7354  -15.1418 C   0  0  0  0  0  0  0  0  0  0  0  0
  -10.3600  -11.4950  -16.2564 N   0  0  0  0  0  0  0  0  0  0  0  0
   -9.5337  -11.1511  -17.2721 C   0  0  0  0  0  0  0  0  0  0  0  0
   -8.7102  -10.0011  -17.1769 C   0  0  0  0  0  0  0  0  0  0  0  0
   -8.0729   -9.6943  -17.9922 H   0  0  0  0  0  0  0  0  0  0  0  0
   -9.5619  -11.9452  -18.4509 N   0  0  0  0  0  0  0  0  0  0  0  0
  -10.3819  -12.5322  -18.5333 H   0  0  0  0  0  0  0  0  0  0  0  0
   -8.6681  -12.0307  -19.4565 C   0  0  0  0  0  0  0  0  0  0  0  0
   -7.5932  -11.4361  -19.5018 O   0  0  0  0  0  0  0  0  0  0  0  0
   -9.0408  -12.9588  -20.6094 C   0  0  0  0  0  0  0  0  0  0  0  0
   -9.1375  -13.9845  -20.2608 H   0  0  0  0  0  0  0  0  0  0  0  0
   -8.2771  -12.9370  -21.3872 H   0  0  0  0  0  0  0  0  0  0  0  0
   -9.9855  -12.6633  -21.0634 H   0  0  0  0  0  0  0  0  0  0  0  0
  -11.0678  -11.0469  -14.3675 H   0  0  0  0  0  0  0  0  0  0  0  0
   -9.6650   -9.0396  -14.0398 H   0  0  0  0  0  0  0  0  0  0  0  0
   -4.7465   -7.6388  -15.8551 Cl  0  0  0  0  0  0  0  0  0  0  0  0
   -3.7260   -5.0929  -16.4760 H   0  0  0  0  0  0  0  0  0  0  0  0
  1  2  1  0
  2  7  2  0
  2  3  1  0
  3  4  2  0
  3 32  1  0
  4  5  1  0
  4 31  1  0
  5  6  2  0
  5 10  1  0
  6  7  1  0
  6  9  1  0
  7  8  1  0
 10 11  2  0
 10 12  1  0
 12 13  1  0
 12 14  1  0
 14 19  1  0
 14 15  2  0
 15 16  1  0
 15 30  1  0
 16 17  2  0
 16 29  1  0
 17 18  1  0
 18 19  2  0
 18 21  1  0
 19 20  1  0
 21 22  1  0
 21 23  1  0
 23 24  2  0
 23 25  1  0
 25 26  1  0
 25 27  1  0
 25 28  1  0
M  END
>  <s_m_source_file>  (5) 
ligprep_tyk2.smi

>  <i_m_source_file_index>  (5) 
1

>  <i_lp_mmshare_version>  (5) 
53161

>  <i_f3d_flags>  (5) 
0

>  <s_epik_input>  (5) 
Q2xjMVtjSF1bY0hdW2NIXWMoQ2wpYzFDKD1PKVtOSF1jMltjSF1bY0hdbmMoW2NIXTIpW05IXUMoPU8pW0NIM10=

>  <s_epik_cmdline>  (5) 
J2VwaWtfcHl0aG9uJywgJy1waHQnLCAnMC4wJywgJy1waCcsICc3LjQnLCAnLXRuJywgJzgnLCAnLW1hJywgJzUwMCcsICctaW1hZScsICc8aW5maWxlLm1hZT4nLCAnLW9tYWUnLCAnPG91dGZpbGUubWFlPic=

>  <r_lp_tautomer_probability>  (5) 
1

>  <r_epik_Ionization_Penalty>  (5) 
  0.0035

>  <r_epik_Ionization_Penalty_Charging>  (5) 
  0.0000

>  <r_epik_Ionization_Penalty_Neutral>  (5) 
  0.0035

>  <r_epik_State_Penalty>  (5) 
 -0.0000

>  <r_epik_Charging_Adjusted_Penalty>  (5) 
0

>  <i_epik_Tot_Q>  (5) 
0

>  <i_epik_Tot_abs_Q>  (5) 
0

>  <s_lp_Force_Field>  (5) 
S-OPLS

>  <r_lp_Energy>  (5) 
27.8362

>  <b_lp_Chiralities_Consistent>  (5) 
1

>  <s_lp_Variant>  (5) 
lig_ejm_31-1

>  <s_i_glide_gridfile>  (5) 
glide-grid_TYK2-4GIH

>  <i_i_glide_lignum>  (5) 
1

>  <i_i_glide_rotatable_bonds>  (5) 
5

>  <r_i_docking_score>  (5) 
-9.61553139973376

>  <r_i_glide_ligand_efficiency>  (5) 
-0.45788244760637

>  <r_i_glide_ligand_efficiency_sa>  (5) 
-1.26326295335976

>  <r_i_glide_ligand_efficiency_ln>  (5) 
-2.37742070857348

>  <r_i_glide_gscore>  (5) 
-9.61553139973376

>  <r_i_glide_lipo>  (5) 
-3.54764816894495

>  <r_i_glide_hbond>  (5) 
-0.560967309882515

>  <r_i_glide_metal>  (5) 
-0

>  <r_i_glide_rewards>  (5) 
-2.51653923167398

>  <r_i_glide_evdw>  (5) 
-47.69189453125

>  <r_i_glide_ecoul>  (5) 
-8.1962194442749

>  <r_i_glide_erotb>  (5) 
0.623650953971416

>  <r_i_glide_esite>  (5) 
0

>  <r_i_glide_emodel>  (5) 
-95.4345671907903

>  <r_i_glide_energy>  (5) 
-55.8881139755249

>  <r_i_glide_einternal>  (5) 
8.54014842843753e-07

>  <i_i_glide_confnum>  (5) 
1

>  <i_i_glide_posenum>  (5) 
1

>  <r_i_glide_eff_state_penalty>  (5) 
-0

>  <r_i_glide_rmsd>  (5) 
0.052420677601671

>  <s_glide_core_constrain_type>  (5) 
snapped_core_restrain

$$$$
lig_ejm_43
     RDKit          3D

 38 39  0  0  1  0  0  0  0  0999 V2000
   -4.7829   -2.7664  -16.5106 H   0  0  0  0  0  0  0  0  0  0  0  0
   -5.3655   -3.6294  -16.2314 C   0  0  0  0  0  0  0  0  0  0  0  0
   -4.7613   -4.8968  -16.2097 C   0  0  0  0  0  0  0  0  0  0  0  0
   -5.5168   -6.0309  -15.8511 C   0  0  0  0  0  0  0  0  0  0  0  0
   -6.8819   -5.9047  -15.5001 C   0  0  0  0  0  0  0  0  0  0  0  0
   -7.4850   -4.6267  -15.5391 C   0  0  0  0  0  0  0  0  0  0  0  0
   -6.7260   -3.4992  -15.8965 C   0  0  0  0  0  0  0  0  0  0  0  0
   -7.1790   -2.5196  -15.9253 H   0  0  0  0  0  0  0  0  0  0  0  0
   -9.1629   -4.3841  -15.1947 Cl  0  0  0  0  0  0  0  0  0  0  0  0
   -7.6921   -7.1092  -15.0922 C   0  0  0  0  0  0  0  0  0  0  0  0
   -8.1050   -7.2064  -13.9363 O   0  0  0  0  0  0  0  0  0  0  0  0
   -7.8801   -8.0181  -16.0656 N   0  0  0  0  0  0  0  0  0  0  0  0
   -7.4055   -7.8145  -16.9345 H   0  0  0  0  0  0  0  0  0  0  0  0
   -8.6994   -9.1763  -16.0859 C   0  0  0  0  0  0  0  0  0  0  0  0
   -9.5528   -9.5798  -15.0305 C   0  0  0  0  0  0  0  0  0  0  0  0
  -10.3589  -10.7178  -15.2152 C   0  0  0  0  0  0  0  0  0  0  0  0
  -10.3623  -11.4572  -16.3408 N   0  0  0  0  0  0  0  0  0  0  0  0
   -9.5356  -11.1058  -17.3528 C   0  0  0  0  0  0  0  0  0  0  0  0
   -8.7090   -9.9562  -17.2628 C   0  0  0  0  0  0  0  0  0  0  0  0
   -8.0898   -9.6534  -18.0868 H   0  0  0  0  0  0  0  0  0  0  0  0
   -9.5611  -11.9163  -18.5193 N   0  0  0  0  0  0  0  0  0  0  0  0
  -10.3872  -12.4907  -18.6096 H   0  0  0  0  0  0  0  0  0  0  0  0
   -8.6263  -12.0716  -19.4767 C   0  0  0  0  0  0  0  0  0  0  0  0
   -7.5511  -11.4671  -19.5315 O   0  0  0  0  0  0  0  0  0  0  0  0
   -8.9514  -13.1268  -20.5456 C   0  0  0  0  0  0  0  0  0  0  0  0
   -9.8835  -13.6515  -20.3011 H   0  0  0  0  0  0  0  0  0  0  0  0
   -7.7905  -14.1466  -20.7376 C   0  0  0  0  0  0  0  0  0  0  0  0
   -7.5491  -14.7157  -19.8481 H   0  0  0  0  0  0  0  0  0  0  0  0
   -6.8972  -13.6165  -21.1000 H   0  0  0  0  0  0  0  0  0  0  0  0
   -8.0434  -14.8410  -21.5489 H   0  0  0  0  0  0  0  0  0  0  0  0
   -9.0860  -12.5240  -21.9414 C   0  0  0  0  0  0  0  0  0  0  0  0
   -9.9622  -11.9192  -21.9531 H   0  0  0  0  0  0  0  0  0  0  0  0
   -8.2188  -11.9174  -22.2245 H   0  0  0  0  0  0  0  0  0  0  0  0
   -9.2568  -13.2931  -22.6913 H   0  0  0  0  0  0  0  0  0  0  0  0
  -11.0374  -11.0340  -14.4288 H   0  0  0  0  0  0  0  0  0  0  0  0
   -9.6353   -9.0318  -14.1086 H   0  0  0  0  0  0  0  0  0  0  0  0
   -4.7269   -7.5578  -15.8529 Cl  0  0  0  0  0  0  0  0  0  0  0  0
   -3.7160   -5.0085  -16.4680 H   0  0  0  0  0  0  0  0  0  0  0  0
  1  2  1  0
  2  7  2  0
  2  3  1  0
  3  4  2  0
  3 38  1  0
  4  5  1  0
  4 37  1  0
  5  6  2  0
  5 10  1  0
  6  7  1  0
  6  9  1  0
  7  8  1  0
 10 11  2  0
 10 12  1  0
 12 13  1  0
 12 14  1  0
 14 19  1  0
 14 15  2  0
 15 16  1  0
 15 36  1  0
 16 17  2  0
 16 35  1  0
 17 18  1  0
 18 19  2  0
 18 21  1  0
 19 20  1  0
 21 22  1  0
 21 23  1  0
 23 24  2  0
 23 25  1  0
 25 26  1  0
 25 27  1  0
 25 31  1  0
 27 28  1  0
 27 29  1  0
 27 30  1  0
 31 32  1  0
 31 33  1  0
 31 34  1  0
M  END
>  <s_m_source_file>  (6) 
ligprep_tyk2.smi

>  <i_m_source_file_index>  (6) 
3

>  <i_lp_mmshare_version>  (6) 
53161

>  <i_f3d_flags>  (6) 
0

>  <s_epik_input>  (6) 
Q2xjMVtjSF1bY0hdW2NIXWMoQ2wpYzFDKD1PKVtOSF1jMltjSF1bY0hdbmMoW2NIXTIpW05IXUMoPU8pW0NIXShbQ0gzXSlbQ0gzXQ==

>  <s_epik_cmdline>  (6) 
J2VwaWtfcHl0aG9uJywgJy1waHQnLCAnMC4wJywgJy1waCcsICc3LjQnLCAnLXRuJywgJzgnLCAnLW1hJywgJzUwMCcsICctaW1hZScsICc8aW5maWxlLm1hZT4nLCAnLW9tYWUnLCAnPG91dGZpbGUubWFlPic=

>  <r_lp_tautomer_probability>  (6) 
1

>  <r_epik_Ionization_Penalty>  (6) 
  0.0034

>  <r_epik_Ionization_Penalty_Charging>  (6) 
  0.0000

>  <r_epik_Ionization_Penalty_Neutral>  (6) 
  0.0034

>  <r_epik_State_Penalty>  (6) 
 -0.0000

>  <r_epik_Charging_Adjusted_Penalty>  (6) 
0

>  <i_epik_Tot_Q>  (6) 
0

>  <i_epik_Tot_abs_Q>  (6) 
0

>  <s_lp_Force_Field>  (6) 
S-OPLS

>  <r_lp_Energy>  (6) 
32.6902

>  <b_lp_Chiralities_Consistent>  (6) 
1

>  <s_lp_Variant>  (6) 
lig_ejm_43-1

>  <s_i_glide_gridfile>  (6) 
glide-grid_TYK2-4GIH

>  <i_i_glide_lignum>  (6) 
3

>  <i_i_glide_rotatable_bonds>  (6) 
6

>  <r_i_docking_score>  (6) 
-9.26699162516251

>  <r_i_glide_ligand_efficiency>  (6) 
-0.402912679354892

>  <r_i_glide_ligand_efficiency_sa>  (6) 
-1.14583006338332

>  <r_i_glide_ligand_efficiency_ln>  (6) 
-2.2408426033986

>  <r_i_glide_gscore>  (6) 
-9.26699162516251

>  <r_i_glide_lipo>  (6) 
-3.4464840111606

>  <r_i_glide_hbond>  (6) 
-0.566053744360385

>  <r_i_glide_metal>  (6) 
-0

>  <r_i_glide_rewards>  (6) 
-2.39536251971087

>  <r_i_glide_evdw>  (6) 
-45.7821807861328

>  <r_i_glide_ecoul>  (6) 
-8.10685539245605

>  <r_i_glide_erotb>  (6) 
0.646045998244398

>  <r_i_glide_esite>  (6) 
0

>  <r_i_glide_emodel>  (6) 
-59.5528629401343

>  <r_i_glide_energy>  (6) 
-53.8890361785889

>  <r_i_glide_einternal>  (6) 
5.48275456822012e-05

>  <i_i_glide_confnum>  (6) 
1

>  <i_i_glide_posenum>  (6) 
2

>  <r_i_glide_eff_state_penalty>  (6) 
-0

>  <r_i_glide_rmsd>  (6) 
0.0982556592093266

>  <s_glide_core_constrain_type>  (6) 
snapped_core_restrain

$$$$
